data_PCOD8000002
_publ_section_title
;
Structure prediction by ZEFSAII (Michael W. Deem and Ramdas Pophale) SiO2 
 PCOD8000002
Probable space group: P 1
;
_chemical_formula_sum "Si O2"
_cell_formula_units_Z 8
_cell_length_a 20.102705
_cell_length_b 6.830074
_cell_length_c 9.837681
_cell_angle_alpha 55.245428
_cell_angle_beta 155.363035
_cell_angle_gamma 131.609531
_cell_volume 418.563987
_symmetry_space_group_name_H-M "P 1"
_symmetry_group_IT_number 1
_symmetry_cell_setting 'triclinic'
loop_
_space_group_symop_operation_xyz
x,y,z
loop_
_atom_site_type_symbol
_atom_site_label
_atom_site_fract_x
_atom_site_fract_y
_atom_site_fract_z
Si Si1 0.183580 0.099910 0.772160
Si Si2 0.983937 0.501285 0.558910
Si Si3 0.347465 0.037511 0.655099
Si Si4 0.688823 0.077191 0.350243
Si Si5 0.168313 0.140030 0.036150
Si Si6 0.017604 0.501420 0.310530
Si Si7 0.827539 0.695257 0.682825
Si Si8 0.510385 0.292497 0.112980
O O1 0.088298 0.287380 0.480649
O O2 0.053192 0.803598 0.609721
O O3 0.238285 0.145461 0.012904
O O4 0.368697 0.171371 0.015164
O O5 0.934682 0.451819 0.326908
O O6 0.814719 0.343824 0.399942
O O7 0.132132 0.393561 0.902528
O O8 0.173373 0.794188 0.480197
O O9 0.318220 0.148652 0.414352
O O10 0.507541 0.948139 0.974130
O O11 0.405711 0.274795 0.783029
O O12 0.630997 0.132608 0.371097
O O13 0.786014 0.889772 0.628853
O O14 0.993505 0.866885 0.830331
O O15 0.866329 0.486336 0.928445
O O16 0.656091 0.576822 0.314730
#
# Coordination Sequence:
#
# PCOD8000002 Si02
#       8
#     1   1   1   1   1   1   1   1
#     4  11  21  37  61  83 117 148 189 233 278 339
#     4  10  19  38  56  86 114 152 184 237 278 334
#     4   9  19  41  55  86 112 148 187 230 283 331
#     4   9  20  36  60  79 119 145 184 235 282 327
#     4   9  21  38  60  82 114 149 192 229 281 333
#     4  10  21  37  61  83 115 148 192 230 283 329
#     4  10  20  39  59  86 110 151 191 233 276 337
#     4  10  21  36  58  85 115 147 187 229 283 332
#
# _framework density 19.112969
#
# number of rings (size 3 to 8) (size 9 to 14) (size 15 to 20)
#    0.750    1.500    1.250    1.500    0.000    2.000 
#    9.000    1.250    0.000    0.000    0.000    0.000 
#    0.000    0.000    0.000    0.000    0.000    0.000 
#
# Total GULP energy -99108.735749 kJ/mol
# GULP energy per Si atom -12388.591969 kJ/mol
# Density = 1.906947 g / cm^3
# Si number density = 19.112969 Si / 1000 Ang^3
#
#
#
#
# Static dielectric constant tensor:
#      x y z
#    x 3.526840 -0.025380 0.063330 
#    y -0.025380 3.400890 -0.027900 
#    z 0.063330 -0.027900 3.446110 
# 
# 
# High freq. dielectric constant tensor:
#      x y z
#    x 1.748130 -0.006410 0.008980 
#    y -0.006410 1.732450 0.003500 
#    z 0.008980 0.003500 1.734110 
# 
# From -- ./inp_files/1139.got.cif
#   From: 2010.03.12/outbox.cif.g09.slc.cpg/sg1_1_cif.got.tgz:1139.got - 2010.03.29 11:57:58.
