data_PCOD8000003
_publ_section_title
;
Structure prediction by ZEFSAII (Michael W. Deem and Ramdas Pophale) SiO2 
 PCOD8000003
Probable space group: P 1
;
_chemical_formula_sum "Si O2"
_cell_formula_units_Z 8
_cell_length_a 14.113031
_cell_length_b 8.687087
_cell_length_c 11.182055
_cell_angle_alpha 121.027365
_cell_angle_beta 38.823084
_cell_angle_gamma 147.129019
_cell_volume 425.833673
_symmetry_space_group_name_H-M "P 1"
_symmetry_group_IT_number 1
_symmetry_cell_setting 'triclinic'
loop_
_space_group_symop_operation_xyz
x,y,z
loop_
_atom_site_type_symbol
_atom_site_label
_atom_site_fract_x
_atom_site_fract_y
_atom_site_fract_z
Si Si1 0.154490 0.904090 0.569860
Si Si2 0.186127 0.738246 0.062030
Si Si3 0.518960 0.905578 0.597270
Si Si4 0.361273 0.406918 0.428300
Si Si5 0.417470 0.624080 0.224462
Si Si6 0.595750 0.153151 0.375040
Si Si7 0.098053 0.516479 0.312532
Si Si8 0.600919 0.436361 0.010269
O O1 0.184350 0.790105 0.389747
O O2 0.150369 0.097948 0.592322
O O3 0.399050 0.114045 0.502659
O O4 0.880884 0.612821 0.791686
O O5 0.173346 0.589090 0.127669
O O6 0.890961 0.516949 0.233263
O O7 0.369671 0.085943 0.047751
O O8 0.289092 0.725752 0.843496
O O9 0.510013 0.689904 0.480085
O O10 0.495962 0.016436 0.551942
O O11 0.793156 0.197694 0.509877
O O12 0.243516 0.399797 0.424804
O O13 0.559724 0.446320 0.195415
O O14 0.239749 0.491504 0.231719
O O15 0.593823 0.620219 0.017737
O O16 0.591261 0.966602 0.224837
#
# Coordination Sequence:
#
# PCOD8000003 Si02
#       8
#     1   1   1   1   1   1   1   1
#     4  11  20  38  62  88 113 157 192 235 288 345
#     4  11  21  38  62  86 117 155 188 240 292 335
#     4  10  21  38  58  88 118 153 188 243 289 338
#     4   9  21  38  57  84 121 149 188 241 286 336
#     4   8  19  40  56  85 117 152 187 244 278 341
#     4   9  22  38  59  85 120 148 197 237 283 346
#     4  10  19  38  60  86 120 148 196 237 284 347
#     4  10  21  38  60  86 116 152 192 235 286 338
#
# _framework density 18.786677999999998
#
# number of rings (size 3 to 8) (size 9 to 14) (size 15 to 20)
#    0.750    1.500    2.500    0.000    1.750    2.000 
#    2.250    1.250    0.000    0.000    0.000    0.000 
#    0.000    0.000    0.000    0.000    0.000    0.000 
#
# Total GULP energy -99122.373829 kJ/mol
# GULP energy per Si atom -12390.296729 kJ/mol
# Density = 1.874392 g / cm^3
# Si number density = 18.786678 Si / 1000 Ang^3
#
#
#
#
# Static dielectric constant tensor:
#      x y z
#    x 3.383780 0.029250 0.106200 
#    y 0.029250 3.418020 0.010610 
#    z 0.106200 0.010610 3.223720 
# 
# 
# High freq. dielectric constant tensor:
#      x y z
#    x 1.718850 0.001480 0.012630 
#    y 0.001480 1.733430 -0.000090 
#    z 0.012630 -0.000090 1.712310 
# 
# From -- ./inp_files/1109.got.cif
#   From: 2010.03.12/outbox.cif.g09.slc.cpg/sg1_1_cif.got.tgz:1109.got - 2010.03.29 11:57:58.
