# generated using pymatgen
data_Li3La5Ti9O27
_symmetry_space_group_name_H-M   'P 1'
_cell_length_a   11.63600000
_cell_length_b   7.90500000
_cell_length_c   11.63600000
_cell_angle_alpha   90.00000000
_cell_angle_beta   90.00000000
_cell_angle_gamma   90.00000000
_symmetry_Int_Tables_number   1
_chemical_formula_structural   Li3La5Ti9O27
_chemical_formula_sum   'Li6 La10 Ti18 O54'
_cell_volume   1070.30930088
_cell_formula_units_Z   2
loop_
 _symmetry_equiv_pos_site_id
 _symmetry_equiv_pos_as_xyz
  1  'x, y, z'
loop_
 _atom_site_type_symbol
 _atom_site_label
 _atom_site_symmetry_multiplicity
 _atom_site_fract_x
 _atom_site_fract_y
 _atom_site_fract_z
 _atom_site_occupancy
  O  O0  1  0.00220995  0.27871300  0.17740565  1
  O  O1  1  0.16690909  0.00223827  0.17763429  1
  O  O2  1  0.16683518  0.28186091  0.01063273  1
  O  O3  1  0.00218428  0.72569788  0.17740388  1
  O  O4  1  0.17329296  0.50219919  0.17715592  1
  O  O5  1  0.16682510  0.72248933  0.01062005  1
  O  O6  1  0.33553088  0.27171271  0.17728140  1
  O  O7  1  0.50438866  0.00219818  0.17715744  1
  O  O8  1  0.50420304  0.28216411  0.01055453  1
  O  O9  1  0.33554033  0.73265260  0.17728535  1
  O  O10  1  0.49741734  0.50220314  0.17746578  1
  O  O11  1  0.50421111  0.72217082  0.01055782  1
  O  O12  1  0.83516759  0.00216422  0.17782756  1
  O  O13  1  0.83559091  0.27196603  0.00985266  1
  O  O14  1  0.66881516  0.72509430  0.17722541  1
  O  O15  1  0.83573788  0.50223402  0.17729971  1
  O  O16  1  0.83558770  0.73241981  0.00985781  1
  O  O17  1  0.00305668  0.27371922  0.51370146  1
  O  O18  1  0.18630931  0.00216945  0.51140190  1
  O  O19  1  0.16692948  0.28232384  0.34403608  1
  O  O20  1  0.00307099  0.73060928  0.51369875  1
  O  O21  1  0.16865942  0.50216377  0.52515749  1
  O  O22  1  0.16693032  0.72205497  0.34404438  1
  O  O23  1  0.33555887  0.27555188  0.50678934  1
  O  O24  1  0.48479831  0.00216851  0.51153542  1
  O  O25  1  0.50427386  0.28176770  0.34402466  1
  O  O26  1  0.33555553  0.72873085  0.50676490  1
  O  O27  1  0.50238272  0.50216425  0.52480610  1
  O  O28  1  0.50427569  0.72260152  0.34403525  1
  O  O29  1  0.66804023  0.27401396  0.51392312  1
  O  O30  1  0.83539495  0.00218665  0.51578873  1
  O  O31  1  0.83539248  0.27228795  0.34483678  1
  O  O32  1  0.66803193  0.73033072  0.51395138  1
  O  O33  1  0.83566994  0.50219743  0.50425785  1
  O  O34  1  0.83539500  0.73212653  0.34482212  1
  O  O35  1  0.00307516  0.27455000  0.84085672  1
  O  O36  1  0.18606779  0.00216861  0.84315069  1
  O  O37  1  0.18278519  0.24652116  0.67731313  1
  O  O38  1  0.00308676  0.72981610  0.84085253  1
  O  O39  1  0.16905810  0.50216812  0.82972402  1
  O  O40  1  0.18281693  0.75780761  0.67731758  1
  O  O41  1  0.33555579  0.27545609  0.84779603  1
  O  O42  1  0.48479731  0.00216182  0.84311580  1
  O  O43  1  0.48823965  0.24663972  0.67730503  1
  O  O44  1  0.33554629  0.72882401  0.84784658  1
  O  O45  1  0.50277567  0.50216893  0.82957488  1
  O  O46  1  0.48817656  0.75768226  0.67730256  1
  O  O47  1  0.66812258  0.27312913  0.84077115  1
  O  O48  1  0.83640373  0.00219832  0.83843357  1
  O  O49  1  0.83565681  0.28728063  0.67727340  1
  O  O50  1  0.66810978  0.73123367  0.84074541  1
  O  O51  1  0.83498506  0.50219465  0.85034702  1
  O  O52  1  0.83567849  0.71706302  0.67728130  1
  O  O53  1  0.66880314  0.27931523  0.17722347  1
  La  La54  1  0.99912615  0.50220806  0.01234810  1
  La  La55  1  0.33546917  0.50217626  0.01320756  1
  La  La56  1  0.67188470  0.50218389  0.01219686  1
  La  La57  1  0.99917410  0.50227190  0.34235170  1
  La  La58  1  0.33564772  0.50222962  0.34137617  1
  La  La59  1  0.67178655  0.50222519  0.34239756  1
  La  La60  1  0.00107487  0.50221889  0.67730001  1
  La  La61  1  0.33554389  0.00223951  0.67739150  1
  La  La62  1  0.33563945  0.50220488  0.67735676  1
  La  La63  1  0.67023413  0.50215322  0.67746972  1
  Ti  Ti64  1  0.16821509  0.23388771  0.17736637  1
  Ti  Ti65  1  0.16822605  0.77051559  0.17734827  1
  Ti  Ti66  1  0.50281667  0.23389252  0.17727399  1
  Ti  Ti67  1  0.50281430  0.77050510  0.17726923  1
  Ti  Ti68  1  0.83547174  0.23326983  0.17733250  1
  Ti  Ti69  1  0.83547285  0.77118788  0.17731603  1
  Ti  Ti70  1  0.16526019  0.76612507  0.50596638  1
  Ti  Ti71  1  0.50588888  0.23819859  0.50597985  1
  Ti  Ti72  1  0.50588433  0.76615494  0.50599618  1
  Ti  Ti73  1  0.83555200  0.23349986  0.51132055  1
  Ti  Ti74  1  0.83554911  0.77087624  0.51133444  1
  Ti  Ti75  1  0.16521753  0.23825801  0.84867802  1
  Ti  Ti76  1  0.16522530  0.76609466  0.84867991  1
  Ti  Ti77  1  0.50591834  0.23819770  0.84864539  1
  Ti  Ti78  1  0.50590989  0.76612628  0.84864228  1
  Ti  Ti79  1  0.83561937  0.23347960  0.84334634  1
  Ti  Ti80  1  0.83561003  0.77091141  0.84333434  1
  Ti  Ti81  1  0.16523723  0.23823517  0.50596943  1
  Li  Li82  1  0.18449480  0.00216671  0.67729582  1
  Li  Li83  1  0.00695799  0.00217115  0.51364771  1
  Li  Li84  1  0.33559224  0.00220044  0.17733962  1
  Li  Li85  1  0.66929364  0.00219298  0.17735847  1
  Li  Li86  1  0.49539365  0.50216379  0.67724714  1
  Li  Li87  1  0.66917992  0.27664362  0.00960045  1
